/*--------------------------------*- C++ -*----------------------------------*\
| =========                 |                                                 |
| \\      /  F ield         | OpenFOAM: The Open Source CFD Toolbox           |
|  \\    /   O peration     | Version:  v1906                                 |
|   \\  /    A nd           | Web:      www.OpenFOAM.com                      |
|    \\/     M anipulation  |                                                 |
\*---------------------------------------------------------------------------*/
FoamFile
{
    version     2.0;
    format      ascii;
    class       dictionary;
    location    "system";
    object      fvSolution;
}
// * * * * * * * * * * * * * * * * * * * * * * * * * * * * * * * * * * * * * //

solvers
{
    "alpha.water.*"
    {
        nAlphaCorr      1;
        nAlphaSubCycles 3;
        cAlpha          1;
    }

    pcorr
    {
        solver          GAMG;
        smoother        DIC;
        tolerance       1e-10;
        relTol          0;
    }

    pcorrFinal
    {
        $pcorr;
        relTol          0;
    }

    p_rgh
    {
        solver          GAMG;
        smoother        DIC;
        tolerance       1e-07;
        relTol          0.001;
    }

    p_rghFinal
    {
        $p_rgh;
        tolerance       1e-8;
        relTol          0;
    }

    U
    {
        solver          smoothSolver;
        smoother        symGaussSeidel;
        tolerance       1e-07;
        relTol          0;
    }

    UFinal
    {
        $U;
        relTol          0;
    }

    rhoE
    {
        solver           PBiCG;
        preconditioner   DILU;
        tolerance        1e-18;
        relTol           0;
    }

    rhoEFinal
    {
        $rhoE;
        relTol          0;
    }

	Ue
    {
        solver          PCG;
        preconditioner  DIC;
        tolerance       1e-7;
        relTol          0;
    }

    UeFinal
    {
        $Ue;
        relTol          0;
    }

    cellDisplacement
    {
        solver          GAMG;
        tolerance       1e-5;
        relTol          0;
        smoother        GaussSeidel;
		cacheAgglomeration false;
		nCellsInCoarsestLevel 10;
		agglomerator    faceAreaPair;
		mergeLevels     1;
    }

}

PIMPLE
{
    momentumPredictor   no;
    nOuterCorrectors    1;
    nCorrectors         3;
    nNonOrthogonalCorrectors 0;
    pRefCell            0;
    pRefValue           0;
}

relaxationFactors
{
    equations
    {
        ".*"            1;
    }
}


// ************************************************************************* //
